New Loadshape.LoadShape npts =5 interval = 1 mult = [0.75       0.777       0.787       0.796       0.782]
