Clear

New object=circuit.ieee123
!~ basekv=4.16 Bus1=1 pu=1.01  R1=0 X1=0.0001 R0=0 X0=0.0001   ! for NLP  at max load 1.016 min 0.9702 
Edit "Vsource.source" bus1=1 pu=1.03 R0=0 X0=0.00000001 phases=1 basekv=2.4018 R1=0 X1=0.00000001



