New "LoadShape.default" npts=24 interval=1 mult=[ 0.677 0.6256 0.6087 0.5833 0.58028 0.6025 0.657 0.7477 0.832 0.88 0.94 0.989 0.985 0.98 0.9898 0.999 1 0.958 0.936 0.913 0.876 0.876 0.828 0.756]
New "LoadShape.loadshape" npts=10 interval=1 mult=[ 0.668 0.705 0.75 0.777 0.787 0.796 0.782 0.783 0.789 0.826]
New "LoadShape.scloadshape3" npts=10 interval=1 mult=[ -1.0002 -0.36843 -2.2396E-16 1.703E-16 0.95633 0.84944 -1.0004 -1.0004 0.32936 0.90586]
New "LoadShape.scloadshape7" npts=10 interval=1 mult=[ -0.99838 -0.37044 6.7305E-17 4.2012E-17 0.82679 0.97905 -1.0004 -1.0004 0.423 0.81244]
New "LoadShape.scloadshape11" npts=10 interval=1 mult=[ -0.99972 -0.3689 -8.1333E-17 -1.7184E-8 0.84319 0.96258 -1.0004 -1.0004 0.6538 0.58142]
New "LoadShape.scloadshape18" npts=10 interval=1 mult=[ -0.83142 -0.48698 -0.0048183 -0.045407 1.0001 0.80562 -1.0004 -1.0004 0.26537 0.96985]
New "LoadShape.scloadshape22" npts=10 interval=1 mult=[ -0.76468 -0.49972 -0.10372 -0.0005047 0.87864 0.92713 -1.0004 -1.0004 0.73378 0.50144]
New "LoadShape.scloadshape30" npts=10 interval=1 mult=[ -0.99874 -0.36973 -3.0397E-16 -0.00015105 0.86903 0.93674 -1.0004 -1.0004 0.23973 0.99549]
New "LoadShape.scloadshape34" npts=10 interval=1 mult=[ -0.75091 -0.52798 -0.086627 -0.0033095 0.98924 0.81731 -1.0008 -1.0008 0.31483 0.92061]
New "LoadShape.scloadshape37" npts=10 interval=1 mult=[ -1 -0.36835 -6.3066E-17 -0.00026796 0.8092 0.99657 -1.0004 -1.0004 0.315 0.92022]
New "LoadShape.scloadshape41" npts=10 interval=1 mult=[ -0.68317 -0.48961 -0.17989 -0.016157 1.0008 0.80546 -1.0008 -1.0004 0.2635 0.97194]
New "LoadShape.scloadshape47" npts=10 interval=1 mult=[ -0.84349 -0.47556 -0.049582 -0.00019287 0.9037 0.90214 -1.0004 -1.0004 0.27681 0.95864]
New "LoadShape.scloadshape50" npts=10 interval=1 mult=[ -0.73603 -0.50876 -0.12363 -0.000043995 0.86865 0.93643 -1 -1 0.50611 0.72893]
New "LoadShape.scloadshape53" npts=10 interval=1 mult=[ -0.92698 -0.44185 -2.0363E-16 -5.1115E-16 1.0004 0.80582 -1.0004 -1.0004 0.23473 1.0003]
New "LoadShape.scloadshape58" npts=10 interval=1 mult=[ -1.0004 -0.36804 9.0462E-17 1.0662E-17 0.89915 0.90556 -1 -1 0.44179 0.79365]
New "LoadShape.scloadshape62" npts=10 interval=1 mult=[ -1.0004 -0.36804 -7.7785E-16 -0.00040485 0.8125 0.99436 -1.0008 -1.0008 0.23469 1.0004]
New "LoadShape.scloadshape67" npts=10 interval=1 mult=[ -0.494 -0.36149 -0.22509 -0.2879 0.90222 0.90305 -1.0001 -1.0001 0.41698 0.81803]
New "LoadShape.scloadshape71" npts=10 interval=1 mult=[ -0.8406 -0.52417 -0.0036485 -0.00020248 0.98631 0.81946 -1.0004 -1.0004 0.27993 0.95529]
New "LoadShape.scloadshape75" npts=10 interval=1 mult=[ -0.95546 -0.41289 -0.00026989 -3.2872E-18 0.87341 0.93255 -1.0004 -1.0004 0.32128 0.91376]
New "LoadShape.scloadshape79" npts=10 interval=1 mult=[ -1.0002 -0.36823 -0.00020248 2.5809E-16 0.85003 0.95592 -1.0004 -1.0004 0.23485 1.0002]
New "LoadShape.scloadshape84" npts=10 interval=1 mult=[ -0.87719 -0.49143 -2.4687E-17 -2.1663E-17 0.82492 0.98085 -1.0004 -1.0004 0.3584 0.87682]
New "LoadShape.scloadshape87" npts=10 interval=1 mult=[ -0.41424 -0.40836 -0.31103 -0.235 0.99017 0.8156 -1.0004 -1.0004 0.52772 0.7075]
New "LoadShape.scloadshape92" npts=10 interval=1 mult=[ -0.83985 -0.52875 -0.000025837 4.1613E-17 0.87192 0.93385 -1.0004 -1.0004 0.31327 0.92195]
New "LoadShape.scloadshape97" npts=10 interval=1 mult=[ -1.0003 -0.36818 -0.00038692 4.4455E-16 0.87998 0.92655 -1.0008 -1.0008 0.23506 1.0004]
New "LoadShape.scloadshape101" npts=10 interval=1 mult=[ -0.90687 -0.46155 -2.9548E-16 -0.00020248 0.90008 0.90587 -1.0004 -1.0004 0.30101 0.93403]
New "LoadShape.scloadshape106" npts=10 interval=1 mult=[ -0.7044 -0.48404 -0.17999 -0.00020248 0.91325 0.89269 -1.0004 -1.0004 0.52738 0.70766]
New "LoadShape.scloadshape111" npts=10 interval=1 mult=[ -0.83382 -0.53204 -0.002554 2.4777E-16 0.87137 0.93348 -1 -1 0.37397 0.86125]
New "LoadShape.scloadshape116" npts=10 interval=1 mult=[ -0.68646 -0.42969 -0.24955 -0.0031171 0.81784 0.98902 -1.0008 -1.0008 0.38852 0.84655]
