New "LoadShape.default" npts=24 interval=1 mult=[ 0.677 0.6256 0.6087 0.5833 0.58028 0.6025 0.657 0.7477 0.832 0.88 0.94 0.989 0.985 0.98 0.9898 0.999 1 0.958 0.936 0.913 0.876 0.876 0.828 0.756]
New "LoadShape.loadshape" npts=11 interval=1 mult=[ 0.644 0.668 0.705 0.75 0.777 0.787 0.796 0.782 0.783 0.789 0.826]
New "LoadShape.scloadshape3" npts=11 interval=1 mult=[ -1 -0.085644 8.2007E-19 -2.2004E-19 6.1521E-19 0.13293 0.4007 -1.7622E-18 7.3988E-19 0.11113 1]
New "LoadShape.scloadshape18" npts=11 interval=1 mult=[ -0.71119 -0.24378 6.799E-20 -4.6481E-19 0.15759 0.24904 0.27287 0.050065 0.087771 0.27953 1]
New "LoadShape.scloadshape35" npts=11 interval=1 mult=[ -1 -0.36842 -1.2158E-18 -5.6005E-19 0.052805 0.34671 0.51548 0.042373 0.10627 0.40637 1]
New "LoadShape.scloadshape48" npts=11 interval=1 mult=[ -1 -0.36842 3.0095E-18 7.5367E-19 -4.5906E-19 0.29053 0.76294 -6.0921E-19 8.216E-19 0.41652 1]
New "LoadShape.scloadshape61" npts=11 interval=1 mult=[ -1 -0.36842 -1.6293E-18 3.7371E-19 1.0303E-16 0.34599 0.62398 -4.7119E-19 0.058922 0.4411 1]
New "LoadShape.scloadshape73" npts=11 interval=1 mult=[ -0.98067 -0.38775 2.7205E-19 -3.108E-19 0.17807 0.31975 0.37756 0.097175 0.14412 0.35332 1]
New "LoadShape.scloadshape87" npts=11 interval=1 mult=[ -0.95049 -0.41793 6.5712E-19 -3.369E-19 0.18753 0.31386 0.38011 0.097938 0.14091 0.34965 1]
New "LoadShape.scloadshape101" npts=11 interval=1 mult=[ -1 -0.36842 -7.5854E-19 -1.2666E-18 8.4118E-17 0.28729 0.76238 -1.3094E-18 6.7005E-19 0.42033 1]
New "LoadShape.scloadshape116" npts=11 interval=1 mult=[ -1 -0.36842 -1.1852E-19 2.495E-18 0.1031 0.336 0.4663 0.06151 0.12167 0.38143 1]
