New "LoadShape.default" npts=24 interval=1 mult=[ 0.677 0.6256 0.6087 0.5833 0.58028 0.6025 0.657 0.7477 0.832 0.88 0.94 0.989 0.985 0.98 0.9898 0.999 1 0.958 0.936 0.913 0.876 0.876 0.828 0.756]
New "LoadShape.loadshape" npts=10 interval=1 mult=[ 0.668 0.705 0.75 0.777 0.787 0.796 0.782 0.783 0.789 0.826]
New "LoadShape.scloadshape3" npts=10 interval=1 mult=[ -0.096967 -0.4678 0.60297 0.00019379 0.122 0.048601 0.00019669 9.9601E-18 -0.037354 0.45983]
New "LoadShape.scloadshape12" npts=10 interval=1 mult=[ -0.2715 -0.71806 -1.6234E-16 0.064924 0.372 0.50246 0.010835 0.11354 0.068003 0.99703]
New "LoadShape.scloadshape24" npts=10 interval=1 mult=[ -0.00042095 5.74E-18 2.6074E-17 -0.00019669 0.062142 0.10377 0.0032327 0.0082424 0.059106 0.99914]
New "LoadShape.scloadshape35" npts=10 interval=1 mult=[ -0.00081545 1.8963E-17 7.9569E-17 0.00020347 0.028607 0.014398 0.00020662 -0.00019669 0.19319 0.99968]
New "LoadShape.scloadshape44" npts=10 interval=1 mult=[ -0.56322 -0.01822 9.7295E-17 -3.2896E-16 0.073919 0.6093 0.00041793 -0.00039326 0.07683 1.0004]
New "LoadShape.scloadshape52" npts=10 interval=1 mult=[ -0.82444 -4.4874E-17 -1.6662E-17 -2.2309E-18 0.2099 0.4823 0.000064824 0.00058023 0.28638 1.0002]
New "LoadShape.scloadshape61" npts=10 interval=1 mult=[ -0.00020787 -5.1621E-17 1.078E-16 0.0004531 0.000087437 0.00016462 0.00039326 0.011688 0.22491 0.99821]
New "LoadShape.scloadshape70" npts=10 interval=1 mult=[ -0.00021543 -1.38E-16 9.2462E-18 0.00039326 0.046834 0.18947 0.00042336 0.0005258 0.0029945 0.99527]
New "LoadShape.scloadshape78" npts=10 interval=1 mult=[ -0.36542 -0.00020983 3.2468E-18 -6.5353E-18 0.00010056 0.0011608 0.000032103 -0.000032103 0.021746 0.97662]
New "LoadShape.scloadshape87" npts=10 interval=1 mult=[ -1.1852E-18 6.4906E-17 -5.1543E-17 0.014116 0.050786 0.23689 0.00050083 0.017553 0.16268 0.75283]
New "LoadShape.scloadshape97" npts=10 interval=1 mult=[ -0.00047768 7.7036E-17 1.5472E-16 0.0042818 0.26929 0.92653 -0.00039326 0.0030768 0.032875 -2.156E-17]
New "LoadShape.scloadshape106" npts=10 interval=1 mult=[ -0.00022883 4.2062E-17 -1.2093E-16 0.0010178 0.19236 0.379 0.0059134 0.071161 0.24059 0.34555]
New "LoadShape.scloadshape116" npts=10 interval=1 mult=[ -0.00015932 1.945E-16 9.7573E-18 0.0060003 0.0296 0.18312 -1.1667E-16 2.7534E-16 0.29733 0.71985]
