New "LoadShape.default" npts=24 interval=1 mult=[ 0.677 0.6256 0.6087 0.5833 0.58028 0.6025 0.657 0.7477 0.832 0.88 0.94 0.989 0.985 0.98 0.9898 0.999 1 0.958 0.936 0.913 0.876 0.876 0.828 0.756]
New "LoadShape.loadshape" npts=9 interval=1 mult=[ 0.668 0.705 0.75 0.777 0.787 0.796 0.782 0.783 0.789]
New "LoadShape.scloadshape3" npts=9 interval=1 mult=[ -0.93745 0.031062 4.0575E-17 0.022696 0.19091 0.34966 -0.00020569 0.0025584 0.24946]
New "LoadShape.scloadshape12" npts=9 interval=1 mult=[ -0.87573 -1.3893E-17 4.2133E-16 2.4584E-16 0.31795 0.079913 -5.636E-17 0.0060081 0.3868]
New "LoadShape.scloadshape24" npts=9 interval=1 mult=[ -0.3848 2.3936E-17 4.6663E-17 0.00030364 0.099134 0.12477 -7.4224E-17 3.6485E-17 0.12325]
New "LoadShape.scloadshape35" npts=9 interval=1 mult=[ -0.35424 -2.7886E-19 3.9506E-19 0.020239 0.02909 0.23011 -3.8251E-17 2.6632E-17 0.04044]
New "LoadShape.scloadshape44" npts=9 interval=1 mult=[ -1.0004 -1.2499E-17 -1.7442E-16 1.0654E-16 0.36526 0.12307 -2.8956E-16 0.000016005 0.41488]
New "LoadShape.scloadshape52" npts=9 interval=1 mult=[ -0.97737 5.5145E-17 -1.4289E-16 0.016239 0.0493 0.67306 3.1093E-17 0.01028 0.13338]
New "LoadShape.scloadshape61" npts=9 interval=1 mult=[ -0.43679 -3.6009E-17 2.2302E-18 0.0037286 0.29161 0.0032144 -7.8059E-17 0.000011179 0.095993]
New "LoadShape.scloadshape70" npts=9 interval=1 mult=[ -0.0082047 1.9979E-18 -2.0449E-16 -1.8883E-16 0.000065187 0.0076699 -9.9385E-17 3.5284E-16 0.000030484]
New "LoadShape.scloadshape78" npts=9 interval=1 mult=[ -0.61034 -1.4527E-18 4.5136E-19 -1.3795E-17 0.10288 0.22535 -1.1113E-17 0.02769 0.19494]
New "LoadShape.scloadshape87" npts=9 interval=1 mult=[ -5.2287E-17 4.4061E-17 3.0303E-17 0.00002336 0.000014973 -1.211E-16 -2.1844E-17 -7.0878E-18 0.00014216]
New "LoadShape.scloadshape97" npts=9 interval=1 mult=[ -0.035928 8.1358E-17 1.8632E-17 -6.9928E-17 0.53893 -0.99216 0.00041126 0.058403 0.33046]
New "LoadShape.scloadshape106" npts=9 interval=1 mult=[ -0.16695 -6.8089E-18 -5.4425E-17 0.00020569 0.051985 0.088702 -9.8509E-17 -7.2993E-17 0.0099407]
New "LoadShape.scloadshape116" npts=9 interval=1 mult=[ -0.079518 1.1082E-16 -6.333E-17 0.00041126 0.035546 0.033354 1.6155E-16 1.0043E-16 0.0027338]
