New "LoadShape.default" npts=24 interval=1 mult=[ 0.677 0.6256 0.6087 0.5833 0.58028 0.6025 0.657 0.7477 0.832 0.88 0.94 0.989 0.985 0.98 0.9898 0.999 1 0.958 0.936 0.913 0.876 0.876 0.828 0.756]
New "LoadShape.loadshape" npts=16 interval=1 mult=[ 0.598 0.613 0.644 0.668 0.705 0.75 0.777 0.787 0.796 0.782 0.783 0.789 0.826 0.855 0.95 1]
New "LoadShape.scloadshape3" npts=16 interval=1 mult=[ -0.97914 -0.38928 -3.7686E-20 3.5888E-20 -5.7131E-20 0 8.479E-17 4.1334E-20 3.3062E-16 0 -8.4893E-21 0 0 2.7608E-20 0.235 1]
New "LoadShape.scloadshape12" npts=16 interval=1 mult=[ -0.90108 -0.46735 0 6.3469E-20 -5.4545E-20 4.3077E-20 1.7631E-17 0 0 0 8.1086E-21 0 1.5185E-17 1.6704E-20 0.235 1]
New "LoadShape.scloadshape24" npts=16 interval=1 mult=[ -0.82296 -0.54546 0 0 0 0 0 -1.1594E-20 8.3869E-17 0 1.5025E-20 0 -2.5734E-20 2.6942E-20 0.235 1]
New "LoadShape.scloadshape35" npts=16 interval=1 mult=[ -0.80509 -0.56333 -2.0783E-20 2.9504E-20 -6.3585E-20 0 0 0 6.922E-17 0 -2.147E-20 -2.4716E-20 1.0206E-20 2.7359E-21 0.235 1]
New "LoadShape.scloadshape44" npts=16 interval=1 mult=[ -1 -0.36842 -1.4019E-20 1.3278E-19 2.1881E-20 -1.0316E-19 3.1104E-16 0 0 0 -1.7547E-19 0 -9.9196E-20 5.0981E-18 0.235 1]
New "LoadShape.scloadshape52" npts=16 interval=1 mult=[ -0.84046 -0.52796 0 -1.0637E-19 -5.4662E-20 7.5586E-36 2.8265E-16 0 5.909E-17 1.5802E-20 0 5.8665E-20 3.2901E-16 0 0.235 1]
New "LoadShape.scloadshape61" npts=16 interval=1 mult=[ -0.93195 -0.43647 8.9222E-21 1.6432E-20 0 2.2865E-19 3.6498E-17 0 1.6647E-16 -4.3562E-20 -1.1527E-19 -1.1272E-19 1.5845E-17 0 0.235 1]
New "LoadShape.scloadshape70" npts=16 interval=1 mult=[ -0.87936 -0.48906 -2.5186E-18 -1.3711E-18 1.4731E-19 2.9808E-18 1.7678E-18 -4.7777E-18 1.9923E-18 -9.116E-17 1.6501E-18 3.4176E-18 -8.3227E-18 1.6524E-18 0.235 1]
New "LoadShape.scloadshape78" npts=16 interval=1 mult=[ -0.62684 -0.50771 -0.23387 -5.7088E-19 1.1955E-19 -3.792E-19 5.2276E-18 -2.8977E-19 4.5658E-20 -2.8209E-19 -5.3566E-19 -1.3479E-19 -2.9021E-18 1.7817E-19 0.37072 0.86428]
New "LoadShape.scloadshape87" npts=16 interval=1 mult=[ -0.46036 -0.3741 -0.29564 -0.23832 7.8742E-19 -1.1252E-18 -1.9459E-18 5.7391E-20 -1.5618E-18 -1.9254E-18 4.3105E-18 1.797E-18 1.6977E-17 7.0869E-19 0.4208 0.8142]
New "LoadShape.scloadshape97" npts=16 interval=1 mult=[ -0.88655 -0.48187 -2.6046E-18 8.2202E-19 -1.9923E-18 2.7301E-18 -4.8017E-18 2.4665E-19 -6.1549E-18 -2.6524E-18 1.2887E-18 6.9308E-18 5.6738E-17 2.0742E-18 0.235 1]
New "LoadShape.scloadshape106" npts=16 interval=1 mult=[ -0.55581 -0.45913 -0.26437 -0.089112 3.5464E-19 5.7134E-19 -1.2552E-18 -1.1489E-18 3.2572E-18 8.8414E-20 -1.0151E-18 -9.1033E-19 -3.9933E-21 -3.6199E-19 0.43759 0.79741]
New "LoadShape.scloadshape116" npts=16 interval=1 mult=[ -0.74327 -0.50532 -0.11982 -9.4908E-19 6.4386E-18 -2.4492E-18 -2.4584E-18 -1.3797E-17 -1.7517E-17 2.0907E-19 8.9515E-18 1.18E-17 2.3086E-18 -4.2316E-19 0.235 1]
