New "LoadShape.default" npts=24 interval=1 mult=[ 0.677 0.6256 0.6087 0.5833 0.58028 0.6025 0.657 0.7477 0.832 0.88 0.94 0.989 0.985 0.98 0.9898 0.999 1 0.958 0.936 0.913 0.876 0.876 0.828 0.756]
New "LoadShape.loadshape" npts=12 interval=1 mult=[ 0.644 0.668 0.705 0.75 0.777 0.787 0.796 0.782 0.783 0.789 0.826 0.855]
New "LoadShape.scloadshape3" npts=12 interval=1 mult=[ -0.84838 -0.52004 -1.1788E-16 5.545E-19 -1.5636E-18 -1.5978E-18 8.3282E-19 -2.4366E-19 -9.6727E-20 3.9893E-19 0.235 1]
New "LoadShape.scloadshape12" npts=12 interval=1 mult=[ -0.91894 -0.44948 -3.8906E-17 -1.4798E-18 4.8255E-18 -2.1378E-18 4.495E-18 5.2562E-19 1.7111E-18 5.7349E-19 0.235 1]
New "LoadShape.scloadshape24" npts=12 interval=1 mult=[ -0.82049 -0.54793 7.9649E-19 1.9064E-18 -2.4317E-18 -2.7533E-20 -1.1572E-18 -6.0196E-19 6.1234E-19 1.96E-18 0.32465 0.91035]
New "LoadShape.scloadshape35" npts=12 interval=1 mult=[ -0.87197 -0.49645 -1.3844E-18 -1.7281E-18 -2.3758E-19 1.8984E-20 1.1551E-17 1.6233E-18 -1.0144E-19 6.5845E-19 0.235 1]
New "LoadShape.scloadshape44" npts=12 interval=1 mult=[ -1 -0.36842 -1.9629E-18 -5.5198E-19 7.9473E-19 -3.6542E-18 2.0942E-16 -1.7847E-18 -3.3315E-18 -5.645E-18 0.235 1]
New "LoadShape.scloadshape52" npts=12 interval=1 mult=[ -1 -0.36842 9.4207E-19 1.713E-18 7.5474E-20 -7.0616E-19 1.2553E-16 1.0198E-18 -2.7381E-18 2.2254E-18 0.235 1]
New "LoadShape.scloadshape61" npts=12 interval=1 mult=[ -0.89136 -0.47706 -6.0277E-19 -2.2029E-18 -5.0219E-19 -1.306E-18 -1.693E-18 3.7948E-18 9.6737E-19 5.6754E-19 0.235 1]
New "LoadShape.scloadshape70" npts=12 interval=1 mult=[ -1 -0.36842 -1.3075E-18 1.1248E-18 -3.0939E-18 -4.5509E-18 1.0644E-16 -3.4397E-18 3.9987E-18 -5.2393E-19 0.235 1]
New "LoadShape.scloadshape78" npts=12 interval=1 mult=[ -0.8267 -0.54173 2.1711E-19 9.6887E-20 -6.9622E-19 7.379E-20 1.6585E-17 8.3939E-21 -8.5471E-20 -3.4053E-19 0.37723 0.85777]
New "LoadShape.scloadshape87" npts=12 interval=1 mult=[ -0.55253 -0.51601 -0.29988 -4.0332E-19 8.257E-19 3.6797E-19 -6.8583E-19 -1.2457E-18 -1.6862E-18 -5.316E-19 0.39168 0.84332]
New "LoadShape.scloadshape97" npts=12 interval=1 mult=[ -1 -0.36842 5.1908E-19 1.0399E-18 7.2059E-18 8.9288E-19 1.15E-17 6.2208E-19 2.8898E-18 1.566E-18 0.24805 0.98695]
New "LoadShape.scloadshape106" npts=12 interval=1 mult=[ -0.7321 -0.54518 -0.091145 -3.7478E-19 -1.191E-18 -1.0064E-18 1.2531E-19 1.3219E-18 -5.8128E-19 -1.1044E-18 0.46355 0.77145]
New "LoadShape.scloadshape116" npts=12 interval=1 mult=[ -0.85143 -0.51699 -1.5197E-18 -2.4365E-18 -7.4617E-19 -2.4294E-18 2.9876E-18 -3.7473E-19 -6.0035E-18 2.3386E-18 0.235 1]
