Clear
Set DefaultBaseFreq=60
New Circuit.ieee123


Redirect Vsource.dss
Redirect LoadShape.dss
Redirect GrowthShape.dss
Redirect TCC_Curve.dss
Redirect Spectrum.dss
Redirect Line.dss
Redirect Load.dss
Redirect Generator.dss
Redirect Capacitor.dss
MakeBusList
Redirect BusVoltageBases.dss  ! set voltage bases
BusCoords BusCoords.dss

Calcv
Solve