New generator.85C  Phases=1   Bus1=85   kV = 2.4018 Model=1 kW=1e-06   kVAr =200
New generator.90C  Phases=1   Bus1=90   kV = 2.4018 Model=1 kW=1e-06   kVAr =50
New generator.92C  Phases=1   Bus1=92   kV = 2.4018 Model=1 kW=1e-06   kVAr =50
New generator.94C  Phases=1   Bus1=94   kV = 2.4018 Model=1 kW=1e-06   kVAr =50
